<?xml version="1.0" encoding="UTF-8"?>

<!-- generated on 2025-11-10 00:48:28.691848 by osmWebWizard.py v1_24_0+0000-b72eb3fabc8
  options: 
-->

<additional xmlns:xsi="http://www.w3.org/2001/XMLSchema-instance" xsi:noNamespaceSchemaLocation="http://sumo.dlr.de/xsd/additional_file.xsd">
   <edgeData id="wizard_example" period="3600" file="edgeData.xml"/>
</additional>
